grids/grid_urisi/cigre/cigre_eu_lv_com/validation/Comercial_Subnetwork_VLN_Node.Txt

LINE-GROUND and LINE-LINE VOLTAGES BY BUS & NODE

Bus       Node    VLN (kV)   Angle      pu     Base kV    Node-Node   VLL (kV)  Angle      pu

SOURCEBUS 1       11.546 /_    0.0   0.99992    20.000        1-2     19.998 /_   30.0   0.99992
   -      2       11.546 /_ -120.0   0.99992    20.000        2-3     19.998 /_  -90.0   0.99992
   -      3       11.546 /_  120.0   0.99992    20.000        3-1     19.998 /_  150.0   0.99992
C_01 .... 1      0.22564 /_  -31.6   0.97703     0.400        1-2    0.39077 /_   -1.6   0.97692
   -      2       0.2256 /_ -151.5   0.97686     0.400        2-3    0.39085 /_ -121.6   0.97713
   -      3      0.22568 /_   88.4   0.97721     0.400        3-1    0.39082 /_  118.4   0.97705
   -      4   5.0116E-005 /_   21.1 0.00021701     0.400
C_02 .... 1      0.22213 /_  -31.6   0.96183     0.400        1-2    0.38493 /_   -1.6   0.96234
   -      2      0.22238 /_ -151.6   0.96295     0.400        2-3    0.38552 /_ -121.6   0.96379
   -      3       0.2226 /_   88.3   0.96389     0.400        3-1    0.38502 /_  118.3   0.96254
   -      4   0.00042264 /_   -3.6 0.0018301     0.400
C_03 .... 1      0.21862 /_  -31.7   0.94663     0.400        1-2     0.3791 /_   -1.6   0.94775
   -      2      0.21917 /_ -151.6   0.94905     0.400        2-3    0.38018 /_ -121.7   0.95046
   -      3      0.21952 /_   88.2   0.95056     0.400        3-1    0.37921 /_  118.2   0.94804
   -      4   0.00080003 /_   -5.2 0.0034642     0.400
C_04 .... 1      0.21697 /_  -31.7   0.93953     0.400        1-2    0.37637 /_   -1.6   0.94093
   -      2      0.21767 /_ -151.7   0.94256     0.400        2-3     0.3777 /_ -121.7   0.94424
   -      3      0.21809 /_   88.2   0.94434     0.400        3-1     0.3765 /_  118.2   0.94126
   -      4   0.00097766 /_   -5.5 0.0042334     0.400
C_05 .... 1      0.21533 /_  -31.7   0.93242     0.400        1-2    0.37365 /_   -1.6   0.93412
   -      2      0.21618 /_ -151.7   0.93607     0.400        2-3    0.37521 /_ -121.7   0.93802
   -      3      0.21665 /_   88.1   0.93812     0.400        3-1    0.37379 /_  118.1   0.93448
   -      4    0.0011553 /_   -5.8 0.0050027     0.400
C_06 .... 1      0.21465 /_  -31.7   0.92945     0.400        1-2    0.37251 /_   -1.6   0.93127
   -      2      0.21555 /_ -151.7   0.93335     0.400        2-3    0.37416 /_ -121.8   0.93541
   -      3      0.21605 /_   88.1   0.93552     0.400        3-1    0.37266 /_  118.1   0.93164
   -      4    0.0012297 /_   -5.9 0.0053247     0.400
C_07 .... 1      0.21396 /_  -31.7   0.92647     0.400        1-2    0.37137 /_   -1.6   0.92841
   -      2      0.21492 /_ -151.7   0.93063     0.400        2-3    0.37312 /_ -121.8    0.9328
   -      3      0.21545 /_   88.1   0.93291     0.400        3-1    0.37152 /_  118.1    0.9288
   -      4    0.0013041 /_   -6.0 0.0056468     0.400
C_08 .... 1      0.21327 /_  -31.7    0.9235     0.400        1-2    0.37022 /_   -1.6   0.92556
   -      2      0.21429 /_ -151.7   0.92792     0.400        2-3    0.37208 /_ -121.8    0.9302
   -      3      0.21485 /_   88.1   0.93031     0.400        3-1    0.37039 /_  118.0   0.92596
   -      4    0.0013784 /_   -6.0 0.0059688     0.400
C_09 .... 1      0.21304 /_  -31.7    0.9225     0.400        1-2    0.36984 /_   -1.6   0.92461
   -      2      0.21408 /_ -151.7   0.92701     0.400        2-3    0.37173 /_ -121.8   0.92933
   -      3      0.21465 /_   88.0   0.92944     0.400        3-1    0.37001 /_  118.0   0.92502
   -      4    0.0014032 /_   -6.1 0.0060759     0.400
C_10 .... 1      0.21438 /_  -31.4   0.92829     0.400        1-2    0.37193 /_   -1.4   0.92982
   -      2      0.21513 /_ -151.4   0.93153     0.400        2-3     0.3733 /_ -121.5   0.93324
   -      3      0.21554 /_   88.4   0.93331     0.400        3-1    0.37203 /_  118.4   0.93008
   -      4    0.0010133 /_   -6.4 0.0043878     0.400
C_11 .... 1      0.21176 /_  -31.3   0.91697     0.400        1-2     0.3675 /_   -1.2   0.91876
   -      2      0.21263 /_ -151.3   0.92072     0.400        2-3    0.36904 /_ -121.3   0.92261
   -      3      0.21308 /_   88.5   0.92266     0.400        3-1    0.36759 /_  118.5   0.91899
   -      4    0.0011461 /_   -6.9 0.0049626     0.400
C_12 .... 1      0.20985 /_  -31.1   0.90869     0.400        1-2    0.36425 /_   -1.0   0.91063
   -      2      0.21079 /_ -151.1   0.91274     0.400        2-3    0.36589 /_ -121.2   0.91471
   -      3      0.21125 /_   88.7   0.91474     0.400        3-1    0.36433 /_  118.7   0.91082
   -      4    0.0012161 /_   -7.4 0.0052659     0.400
C_13 .... 1      0.20985 /_  -31.1   0.90869     0.400        1-2    0.36425 /_   -1.0   0.91063
   -      2      0.21079 /_ -151.1   0.91274     0.400        2-3    0.36589 /_ -121.2   0.91471
   -      3      0.21125 /_   88.7   0.91474     0.400        3-1    0.36433 /_  118.7   0.91082
   -      4    0.0012161 /_   -7.4 0.0052659     0.400
C_14 .... 1      0.21202 /_  -31.2   0.91805     0.400        1-2    0.36791 /_   -1.2   0.91976
   -      2      0.21284 /_ -151.2   0.92164     0.400        2-3    0.36938 /_ -121.3   0.92346
   -      3      0.21327 /_   88.6    0.9235     0.400        3-1    0.36799 /_  118.6   0.91998
   -      4     0.001098 /_   -7.0 0.0047547     0.400
C_15 .... 1      0.21317 /_  -31.6   0.92307     0.400        1-2       0.37 /_   -1.5     0.925
   -      2      0.21412 /_ -151.6   0.92717     0.400        2-3     0.3717 /_ -121.6   0.92926
   -      3      0.21462 /_   88.2   0.92935     0.400        3-1    0.37013 /_  118.2   0.92533
   -      4    0.0012668 /_   -6.3 0.0054853     0.400
C_16 .... 1      0.21153 /_  -31.5   0.91596     0.400        1-2    0.36722 /_   -1.4   0.91806
   -      2      0.21256 /_ -151.5    0.9204     0.400        2-3    0.36904 /_ -121.5   0.92261
   -      3      0.21308 /_   88.3   0.92267     0.400        3-1    0.36735 /_  118.3   0.91837
   -      4     0.001352 /_   -6.7 0.0058545     0.400
C_18 .... 1      0.21242 /_  -31.5    0.9198     0.400        1-2    0.36872 /_   -1.4   0.92179
   -      2      0.21339 /_ -151.5   0.92401     0.400        2-3    0.37046 /_ -121.6   0.92614
   -      3       0.2139 /_   88.3   0.92622     0.400        3-1    0.36884 /_  118.3    0.9221
   -      4    0.0012945 /_   -6.5 0.0056052     0.400
C_17 .... 1      0.20913 /_  -31.3   0.90557     0.400        1-2    0.36315 /_   -1.2   0.90788
   -      2      0.21025 /_ -151.3    0.9104     0.400        2-3    0.36509 /_ -121.4   0.91272
   -      3      0.21079 /_   88.5   0.91275     0.400        3-1    0.36325 /_  118.5   0.90813
   -      4    0.0014427 /_   -7.3 0.0062471     0.400
C_19 .... 1      0.21176 /_  -31.6   0.91693     0.400        1-2    0.36765 /_   -1.5   0.91913
   -      2      0.21283 /_ -151.6    0.9216     0.400        2-3    0.36958 /_ -121.7   0.92395
   -      3       0.2134 /_   88.2   0.92403     0.400        3-1     0.3678 /_  118.1   0.91949
   -      4     0.001435 /_   -6.5 0.0062138     0.400
C_20 .... 1      0.21229 /_  -31.7   0.91923     0.400        1-2    0.36856 /_   -1.6    0.9214
   -      2      0.21336 /_ -151.7   0.92386     0.400        2-3    0.37049 /_ -121.7   0.92621
   -      3      0.21392 /_   88.1   0.92631     0.400        3-1    0.36872 /_  118.1   0.92179
   -      4    0.0014313 /_   -6.3 0.0061978     0.400
